8

 Ge   0.46428000   0.95500000   9.48441000
 Ge   1.72572000   0.95500000   4.08941000
 Ge   3.91572000   2.86500000   1.30559000
 Ge   2.65428000   2.86500000   6.70059000
 Se   2.20314000   0.95500000   1.59692000
 Se   4.36686000   0.95500000   6.99192000
 Se   2.17686000   2.86500000   9.19308000
 Se   0.01314000   2.86500000   3.79808000
